/*--------------------------------*- C++ -*----------------------------------*\
| =========                 |                                                 |
| \\      /  F ield         | OpenFOAM: The Open Source CFD Toolbox           |
|  \\    /   O peration     | Version:  v2012                                 |
|   \\  /    A nd           | Website:  www.openfoam.com                      |
|    \\/     M anipulation  |                                                 |
\*---------------------------------------------------------------------------*/
FoamFile
{
    version     2.0;
    format      ascii;
    class       volScalarField;
    object      T;
}
// * * * * * * * * * * * * * * * * * * * * * * * * * * * * * * * * * * * * * //

dimensions      [0 0 0 1 0 0 0];

#include        "../system/geometryAndProperties"
#include        "include/initialConditions"

internalField   uniform $T0;

boundaryField
{
    inlet
    {
          type            totalTemperature;
          gamma           $gamma;
          T0              uniform $T0;
    }

    outlet
    {
        type            zeroGradient;
    }
    
    lowerWall
    {
        type            zeroGradient;
    }

    upperWall
    {
        type            zeroGradient;
    }

    frontAndBack
    {
        type            empty;
    }
}

// ************************************************************************* //
