/*--------------------------------*- C++ -*----------------------------------*\
| =========                 |                                                 |
| \\      /  F ield         | OpenFOAM: The Open Source CFD Toolbox           |
|  \\    /   O peration     | Version:  v2012                                 |
|   \\  /    A nd           | Website:  www.openfoam.com                      |
|    \\/     M anipulation  |                                                 |
\*---------------------------------------------------------------------------*/
FoamFile
{
    version     2.0;
    format      ascii;
    class       dictionary;
    object      blockMeshDict;
}
// * * * * * * * * * * * * * * * * * * * * * * * * * * * * * * * * * * * * * //

scale   1;

vertices
(
    (-5 -1 -1)
    (5 -1 -1)
    (5 1 -1)
    (-5 1 -1)
    (-5 -1 1)
    (5 -1 1)
    (5 1 1)
    (-5 1 1)
);

blocks
(
    hex (0 1 2 3 4 5 6 7) (100 1 1) simpleGrading (1 1 1)
);

edges
(
);

boundary
(
    inlet
    {
        type patch;
        faces
        (
            (0 4 7 3)
        );
    }
    outlet
    {
        type patch;
        faces
        (
            (2 6 5 1)
        );
    }
    lowerWall
    {
        type            cyclic;
        neighbourPatch  upperWall;
        faces
        (
            (1 5 4 0)
        );
    }
    upperWall
    {
        type            cyclic;
        neighbourPatch  lowerWall;
        faces
        (
            (3 7 6 2)
        );
    }
    backWall
    {
        type            cyclic;
        neighbourPatch  frontWall;
        faces
        (
            (0 3 2 1)
        );
    }
    frontWall
    {
        type            cyclic;
        neighbourPatch  backWall;
        faces
        (
            (4 5 6 7)
        );
    }
);

mergePatchPairs
(
);

// ************************************************************************* //
